60
C60
C 1.847 -2.424 1.826 -0.001764
C 0.605 -3.127 1.523 0.039714
C 0.616 -3.475 0.128 0.029388
C 3.356 -1.184 0.319 0.06025
C 3.344 -0.07 1.255 -0.01305
C 2.601 -0.157 2.433 0.01979
C 1.835 -1.358 2.72 0.012789
C -0.599 -2.743 2.141 0.025575
C -0.61 -1.643 3.067 0.031628
C 0.583 -0.953 3.349 0.026633
C -0.578 -3.429 -0.614 0.022915
C -1.83 -3.043 0.027 0.020424
C 3.362 -0.639 -1.029 -0.02503
C 0.627 -2.41 -2.504 0.023025
C -0.572 -2.889 -1.947 0.037439
C 3.343 1.163 0.485 0.024947
C 3.353 0.812 -0.927 0.017799
C 0.575 0.481 3.451 0.021511
C 1.823 0.983 2.886 0.021334
C 0.626 -1.19 -3.266 0.025183
C 1.867 -0.477 -2.984 0.017512
C -2.599 -2.259 -0.925 -0.004531
C -1.822 -2.163 -2.149 0.017014
C 1.822 2.163 2.149 -0.01458
C 2.599 2.259 0.925 0.008282
C 1.859 0.91 -2.886 -0.01279
C 2.62 1.572 -1.84 0.025839
C -1.823 -0.983 -2.885 -0.003236
C -0.575 -0.481 -3.45 0.03861
C -3.354 -0.812 0.927 0.043103
C -3.343 -1.163 -0.485 0.011299
C -1.867 0.477 2.983 0.018932
C -0.626 1.19 3.266 0.03594
C 1.831 3.043 -0.027 0.019432
C 1.841 2.708 -1.377 -0.000684
C -2.635 1.27 2.04 -0.000237
C -3.362 0.639 1.029 -0.00057
C -3.344 0.07 -1.255 0.00245
C -2.601 0.157 -2.433 0.025035
C -0.583 0.953 -3.349 0.000215
C 0.61 1.643 -3.067 0.064222
C -1.835 1.358 -2.72 0.022726
C -3.356 1.184 -0.319 0.024907
C 2.635 -1.27 -2.04 0.031858
C 1.869 -2.468 -1.741 -0.002587
C 1.864 -2.99 -0.452 0.012535
C 2.624 -2.339 0.601 -0.005774
C -1.841 -2.707 1.377 0.009059
C -2.62 -1.572 1.839 -0.005523
C -1.859 -0.911 2.886 0.00633
C 0.599 2.743 -2.141 -0.005507
C -1.847 2.423 -1.826 -0.016563
C -0.605 3.127 -1.523 0.081137
C 0.578 3.429 0.614 0.028326
C 0.572 2.889 1.947 0.058484
C -0.616 3.476 -0.128 0.009793
C -0.627 2.41 2.504 -0.005795
C -1.869 2.468 1.741 0.043805
C -2.624 2.339 -0.601 0.013116
C -1.864 2.99 0.451 -0.012087
